*Heading
** Job name: Job-4 Model name: Model-1-Copy
** Generated by: Abaqus/CAE 2024
*Preprint, echo=NO, model=NO, history=NO, contact=NO
**
** PARTS
**
*Part, name="P3D End Mill"
*Node
      1, 0.00117881014,           0., 0.000316465856
      2, 0.0012030662,           0., 0.000278383523
      3, 0.00134536973, 5.24739974e-10, 0.000377088581
      4, 0.00117079588, -3.21336302e-05, 0.000313548924
      5, -9.8358787e-06,           0.,           0.
      6,           0., 0.000527839584, 9.30723545e-05
      7, 9.77073978e-06, 3.43171723e-06, 6.05104333e-07
      8, -0.000177750087, 0.00310216635, 0.00178966043
      9,           0., 0.00307104434, 8.78128849e-05
     10, -0.000102269405, 0.00301723368, 0.00106675911
     11, -0.000127640073, 0.0031939582, 0.00222480134
     12, 0.000103469793, -0.000628097681, 1.82445092e-05
     13, 0.000877580198, 0.0034691724, 0.00246272283
     14, 0.00109529309, -0.000128477302, 0.00038561874
     15, 0.000600000028, -0.00111692247, 0.000105796054
     16, 0.000801293354, -0.000955046387, 0.000179061099
     17, 0.00169033254, 0.00315992325,  0.001037532
     18, 0.00149732654, 0.000600000028, 0.000105796185
     19, 0.00139790564, 8.99185616e-05, 1.58550683e-05
     20, 0.00123986788, 3.07537375e-05, 0.000235438391
** ... 4240 like lines cut
*Element, type=C3D4T
    1, 1710, 1711, 1712, 1713
    2, 1710, 1714, 1715, 1716
    3, 1710, 1717, 1718, 1711
    4, 1710, 1714, 1719, 1715
    5, 1710, 1719, 1718, 1717
    6, 1712, 1710, 1714, 1718
    7, 1714, 1718, 1720, 1712
    8, 1721, 1722, 1723, 1724
    9, 1721, 1722, 1725, 1726
   10, 1727, 1728,  712,   31
   11, 1721, 1725, 1722, 1724
   12, 1721, 1729, 1730, 1731
   13, 1732, 1733, 1734, 1716
   14, 1732, 1734, 1733, 1735
   15, 1736, 1737, 1738, 1739
   16, 1732, 1739, 1737, 1740
   17, 1732, 1734, 1735, 1741
   18, 1732, 1742, 1734, 1743
   19, 1732, 1734, 1741, 1744
   20, 1732, 1740, 1737, 1745
** ... 20254 like lines cut
*Node
   4261, -6.25660634e-10, -4.78115325e-10, 0.00600000005
*Nset, nset="P3D End Mill-RefPt_", internal
4261, 
*Nset, nset=_PickedSet17, internal, generate
    1,  4260,     1
*Elset, elset=_PickedSet17, internal, generate
     1,  20274,      1
** Section: Carbide
*Solid Section, elset=_PickedSet17, material=Carbide
,
*End Part
**  
*Part, name=Wp
*Node
      1, -0.000304780144, 0.000782503048,           0.
      2, -0.000304780144, 0.000782503048, 0.00400000019
      3, 0.00353521993, 0.000782503048, 0.00400000019
      4, 0.00353521993, 0.000782503048,           0.
      5, -0.000304780144, -0.000717496907, 0.00400000019
      6, 0.00353521993, -0.000717496907, 0.00400000019
      7, 0.00353521993, -0.000717496907,           0.
      8, -0.000304780144, -0.000717496907,           0.
      9, -0.00346478005, 0.000380110345, 0.00400000019
     10, -0.00346478005, 0.000380110345,           0.
     11, -0.00346478005, 0.000282503082,           0.
     12, -0.00346478005, 0.000282503082, 0.00400000019
     13, -0.00046478014, -0.000717496907,           0.
     14, -0.00046478014, -0.000717496907, 0.00400000019
     15, -0.00346478005, 0.000782503048,           0.
     16, -0.00346478005, 0.000782503048, 0.00400000019
     17, -0.000304780144, 0.000782503048, 0.000199999995
     18, -0.000304780144, 0.000782503048, 0.00039999999
     19, -0.000304780144, 0.000782503048, 0.000600000028
     20, -0.000304780144, 0.000782503048, 0.00079999998
** ... 20392 like lines cut
*Element, type=C3D8RT
   1,  160, 1279, 6030, 1039,    1,   17,  583,   78
   2, 1279, 1280, 6031, 6030,   17,   18,  584,  583
   3, 1280, 1281, 6032, 6031,   18,   19,  585,  584
   4, 1281, 1282, 6033, 6032,   19,   20,  586,  585
   5, 1282, 1283, 6034, 6033,   20,   21,  587,  586
   6, 1283, 1284, 6035, 6034,   21,   22,  588,  587
   7, 1284, 1285, 6036, 6035,   22,   23,  589,  588
   8, 1285, 1286, 6037, 6036,   23,   24,  590,  589
   9, 1286, 1287, 6038, 6037,   24,   25,  591,  590
  10, 1287, 1288, 6039, 6038,   25,   26,  592,  591
  11, 1288, 1289, 6040, 6039,   26,   27,  593,  592
  12, 1289, 1290, 6041, 6040,   27,   28,  594,  593
  13, 1290, 1291, 6042, 6041,   28,   29,  595,  594
  14, 1291, 1292, 6043, 6042,   29,   30,  596,  595
  15, 1292, 1293, 6044, 6043,   30,   31,  597,  596
  16, 1293, 1294, 6045, 6044,   31,   32,  598,  597
  17, 1294, 1295, 6046, 6045,   32,   33,  599,  598
  18, 1295, 1296, 6047, 6046,   33,   34,  600,  599
  19, 1296, 1297, 6048, 6047,   34,   35,  601,  600
  20, 1297,  171, 1159, 6048,   35,    2,   36,  601
** ... 17840 like lines cut
*Nset, nset=Set-54, generate
     1,  20412,      1
*Elset, elset=Set-54, generate
     1,  17860,      1
** Region: (Ti64:Set-54), (Controls:EC-1)
*Elset, elset=_I1, internal
     1,     2,     3,     4,     5,     6,     7,     8,     9,    10,    11,    12,    13,    14,    15,    16
    17,    18,    19,    20,    21,    22,    23,    24,    25,    26,    27,    28,    29,    30,    31,    32
    33,    34,    35,    36,    37,    38,    39,    40,    41,    42,    43,    44,    45,    46,    47,    48
    49,    50,    51,    52,    53,    54,    55,    56,    57,    58,    59,    60,    61,    62,    63,    64
    65,    66,    67,    68,    69,    70,    71,    72,    73,    74,    75,    76,    77,    78,    79,    80
    81,    82,    83,    84,    85,    86,    87,    88,    89,    90,    91,    92,    93,    94,    95,    96
    97,    98,    99,   100,   101,   102,   103,   104,   105,   106,   107,   108,   109,   110,   111,   112
   113,   114,   115,   116,   117,   118,   119,   120,   121,   122,   123,   124,   125,   126,   127,   128
   129,   130,   131,   132,   133,   134,   135,   136,   137,   138,   139,   140,   141,   142,   143,   144
   145,   146,   147,   148,   149,   150,   151,   152,   153,   154,   155,   156,   157,   158,   159,   160
   161,   162,   163,   164,   165,   166,   167,   168,   169,   170,   171,   172,   173,   174,   175,   176
   177,   178,   179,   180,   181,   182,   183,   184,   185,   186,   187,   188,   189,   190,   191,   192
   193,   194,   195,   196,   197,   198,   199,   200,   201,   202,   203,   204,   205,   206,   207,   208
   209,   210,   211,   212,   213,   214,   215,   216,   217,   218,   219,   220,   221,   222,   223,   224
   225,   226,   227,   228,   229,   230,   231,   232,   233,   234,   235,   236,   237,   238,   239,   240
   241,   242,   243,   244,   245,   246,   247,   248,   249,   250,   251,   252,   253,   254,   255,   256
   257,   258,   259,   260,   261,   262,   263,   264,   265,   266,   267,   268,   269,   270,   271,   272
   273,   274,   275,   276,   277,   278,   279,   280,   281,   282,   283,   284,   285,   286,   287,   288
   289,   290,   291,   292,   293,   294,   295,   296,   297,   298,   299,   300,   301,   302,   303,   304
   305,   306,   307,   308,   309,   310,   311,   312,   313,   314,   315,   316,   317,   318,   319,   320
** ... 847 like lines cut
** Section: Ti64
*Solid Section, elset=_I1, controls=EC-1, material=Ti6Al4V
,
** Region: (Ti64:Set-54), (Controls:EC-2)
*Elset, elset=_I2, internal, generate
 2861,  6860,     1
** Section: Ti64
*Solid Section, elset=_I2, controls=EC-2, material=Ti6Al4V
,
*End Part
**  
**
** ASSEMBLY
**
*Assembly, name=Assembly
**  
*Instance, name=Wp-1, part=Wp
   -0.003465,     0.004717,        0.004
   -0.003465,     0.004717,        0.004,    -0.003465,     1.004717,        0.004,         180.
*End Instance
**  
*Instance, name="P3D End Mill-1", part="P3D End Mill"
   -0.000119,           0.,           0.
   -0.000119,           0.,           0.,    -0.000119,           0., 1.00000001195497, 36.8849992240921
*End Instance
**  
*Node
      1, -0.000118999997, -2.48750803e-12,           0.
*Nset, nset=Set-1, instance=Wp-1
    13,    14,   225,   226,   227,   228,   229,   230,   231,   232,   233,   234,   235,   236,   237,   238
   239,   240,   241,   242,   243,   244,   245,   246,   247,   248,   249,   281,   282,   283,   284,   285
   286,   287,   288,   289,   290,   291,   292,   293,   294,   295,   296,   297,   298,   348,   349,   350
   351,   352,   353,   354,   355,   356,   357,   358,   359,   360,   361,   362,   363,   364,   365,  1716
  1717,  1718,  1719,  1720,  1721,  1722,  1723,  1724,  1725,  1726,  1727,  1728,  1729,  1730,  1731,  1732
  1733,  1734,  1735,  1736,  1737,  1738,  1739,  1740,  1741,  1742,  1743,  1744,  1745,  1746,  1747,  1748
  1749,  1750,  1751,  1752,  1753,  1754,  1755,  1756,  1757,  1758,  1759,  1760,  1761,  1762,  1763,  1764
  1765,  1766,  1767,  1768,  1769,  1770,  1771,  1772,  1866,  1867,  1868,  1869,  1870,  1871,  1872,  1873
  1874,  1875,  1876,  1877,  1878,  1879,  1880,  1881,  1882,  1883,  1884,  1885,  1886,  1887,  1888,  1889
  1890,  1891,  1892,  1893,  1894,  1895,  1896,  1897,  1898,  1899,  1900,  1901,  1902,  1903,  1904,  1905
  1906,  1907,  1908,  1909,  1910,  1911,  1912,  1913,  1914,  1915,  1916,  1917,  1918,  1919,  2013,  2014
  2015,  2016,  2017,  2018,  2019,  2020,  2021,  2022,  2023,  2024,  2025,  2026,  2027,  2028,  2029,  2030
  2031,  2032,  2033,  2034,  2035,  2036,  2037,  2038,  2039,  2040,  2041,  2042,  2043,  2044,  2045,  2046
  2047,  2048,  2049,  2050,  2051,  2052,  2053,  2054,  2055,  2056,  2057,  2058,  2059,  2060,  2061,  2062
  2063,  2064,  2065,  2066,  3587,  3588,  3589,  3590,  3591,  3592,  3593,  3594,  3595,  3596,  3597,  3598
  3599,  3600,  3601,  3602,  3603,  3604,  3605,  3606,  3607,  3608,  3609,  3610,  3611,  3612,  3613,  3614
  3615,  3616,  3617,  3618,  3619,  3620,  3621,  3622,  3623,  3624,  3625,  3626,  3627,  3628,  3629,  3630
  3631,  3632,  3633,  3634,  3635,  3636,  3637,  3638,  3639,  3640,  3641,  3642,  3643,  3644,  3645,  3646
  3647,  3648,  3649,  3650,  3651,  3652,  3653,  3654,  3655,  3656,  3657,  3658,  3659,  3660,  3661,  3662
  3663,  3664,  3665,  3666,  3667,  3668,  3669,  3670,  3671,  3672,  3673,  3674,  3675,  3676,  3677,  3678
** ... 80 like lines cut
*Nset, nset=Set-2, instance="P3D End Mill-1"
 1297,
*Nset, nset=_PickedSet25, internal, instance="P3D End Mill-1"
 4261,
*Nset, nset=_PickedSet27, internal, instance=Wp-1
    1,    2,    3,    4,    6,    7,   15,   16,   17,   18,   19,   20,   21,   22,   23,   24
   25,   26,   27,   28,   29,   30,   31,   32,   33,   34,   35,   36,   37,   38,   39,   40
   41,   42,   43,   44,   45,   46,   47,   48,   49,   50,   51,   52,   53,   54,   55,   56
   57,   58,   59,   60,   61,   62,   63,   64,   65,   66,   67,   68,   69,   70,   71,   72
   73,   74,   75,   76,   77,   78,  110,  111,  112,  113,  114,  115,  116,  117,  118,  119
  120,  121,  122,  123,  124,  125,  126,  127,  128,  141,  142,  143,  144,  145,  146,  147
  148,  149,  150,  161,  162,  163,  164,  165,  166,  167,  168,  169,  170,  446,  447,  448
  449,  450,  451,  452,  453,  454,  455,  456,  457,  458,  459,  460,  461,  462,  463,  464
  465,  466,  467,  468,  469,  470,  471,  472,  473,  474,  475,  476,  477,  478,  479,  480
  481,  482,  483,  484,  485,  486,  487,  488,  489,  490,  491,  492,  493,  494,  495,  496
  497,  498,  499,  500,  501,  502,  503,  504,  505,  506,  507,  508,  509,  510,  511,  512
  513,  514,  515,  516,  517,  518,  519,  520,  521,  522,  523,  524,  525,  526,  527,  528
  529,  530,  531,  532,  533,  534,  535,  536,  537,  538,  539,  540,  541,  542,  543,  544
  545,  546,  547,  548,  549,  550,  551,  552,  553,  554,  555,  556,  557,  558,  559,  560
  561,  562,  583,  584,  585,  586,  587,  588,  589,  590,  591,  592,  593,  594,  595,  596
  597,  598,  599,  600,  601,  602,  603,  604,  605,  606,  607,  608,  609,  610,  611,  612
  613,  614,  615,  616,  617,  618,  619,  620,  621,  622,  623,  624,  625,  626,  627,  628
  629,  630,  631,  632,  633,  634,  635,  636,  637,  638,  639,  640,  641,  642,  643,  644
  645,  646,  647,  648,  649,  650,  651,  652,  653,  654,  655,  656,  657,  658,  659,  660
  661,  662,  663,  664,  665,  666,  667,  668,  669,  670,  671,  672,  673,  674,  675,  676
** ... 79 like lines cut
*Elset, elset=_PickedSet27, internal, instance=Wp-1
    1,    2,    3,    4,    5,    6,    7,    8,    9,   10,   11,   12,   13,   14,   15,   16
   17,   18,   19,   20,   21,   22,   23,   24,   25,   26,   27,   28,   29,   30,   31,   32
   33,   34,   35,   36,   37,   38,   39,   40,   41,   42,   43,   44,   45,   46,   47,   48
   49,   50,   51,   52,   53,   54,   55,   56,   57,   58,   59,   60,   61,   62,   63,   64
   65,   66,   67,   68,   69,   70,   71,   72,   73,   74,   75,   76,   77,   78,   79,   80
   81,   82,   83,   84,   85,   86,   87,   88,   89,   90,   91,   92,   93,   94,   95,   96
   97,   98,   99,  100,  101,  102,  103,  104,  105,  106,  107,  108,  109,  110,  111,  112
  113,  114,  115,  116,  117,  118,  119,  120,  121,  122,  123,  124,  125,  126,  127,  128
  129,  130,  131,  132,  133,  134,  135,  136,  137,  138,  139,  140,  141,  142,  143,  144
  145,  146,  147,  148,  149,  150,  151,  152,  153,  154,  155,  156,  157,  158,  159,  160
  161,  162,  163,  164,  165,  166,  167,  168,  169,  170,  171,  172,  173,  174,  175,  176
  177,  178,  179,  180,  181,  182,  183,  184,  185,  186,  187,  188,  189,  190,  191,  192
  193,  194,  195,  196,  197,  198,  199,  200,  201,  202,  203,  204,  205,  206,  207,  208
  209,  210,  211,  212,  213,  214,  215,  216,  217,  218,  219,  220,  221,  222,  223,  224
  225,  226,  227,  228,  229,  230,  231,  232,  233,  234,  235,  236,  237,  238,  239,  240
  241,  242,  243,  244,  245,  246,  247,  248,  249,  250,  251,  252,  253,  254,  255,  256
  257,  258,  259,  260,  501,  502,  503,  504,  505,  506,  507,  508,  509,  510,  511,  512
  513,  514,  515,  516,  517,  518,  519,  520,  761,  762,  763,  764,  765,  766,  767,  768
  769,  770,  771,  772,  773,  774,  775,  776,  777,  778,  779,  780, 1021, 1022, 1023, 1024
 1025, 1026, 1027, 1028, 1029, 1030, 1031, 1032, 1033, 1034, 1035, 1036, 1037, 1038, 1039, 1040
** ... 72 like lines cut
*Nset, nset=_PickedSet28, internal, instance=Wp-1, generate
     1,  20412,      1
*Elset, elset=_PickedSet28, internal, instance=Wp-1, generate
     1,  17860,      1
*Nset, nset=_PickedSet29, internal, instance="P3D End Mill-1", generate
    1,  4260,     1
*Elset, elset=_PickedSet29, internal, instance="P3D End Mill-1", generate
     1,  20274,      1
*Nset, nset=_PickedSet30, internal, instance="P3D End Mill-1"
 4261,
*Nset, nset=_PickedSet31, internal, instance="P3D End Mill-1", generate
    1,  4260,     1
*Elset, elset=_PickedSet31, internal, instance="P3D End Mill-1", generate
     1,  20274,      1
*Nset, nset=_PickedSet36, internal, instance="P3D End Mill-1"
 4261,
*Elset, elset=_m_Surf-1_S1, internal, instance="P3D End Mill-1"
   517,   563,  2483,  2501,  2502,  2594,  2630,  2788,  2822,  2834,  2855,  2859,  2891,  2963,  3007,  3121
  3273,  3422,  3573,  3597,  3643,  3723,  3726,  3928,  4059,  4257,  4375,  4377,  4448,  4451,  4467,  4490
  4508,  4524,  4534,  4559,  4614,  4657,  4668,  4936,  5490,  5503,  5551,  5627,  5804,  5846,  5875,  5903
  5934,  5946,  5954,  5971,  6007,  6018,  6032,  6034,  6089,  6092,  6105,  6131,  6178,  6197,  6199,  6291
  6303,  6410,  6489,  6491,  6659,  6713,  6879,  6930,  7212,  7218,  7403,  7406,  7569,  7590,  7605,  7619
  7625,  7654,  7685,  7707,  7710,  7714,  7717,  7722,  7730,  7751,  7753,  7774,  7796,  7824,  7843,  7862
  7868,  7891,  7912,  7922,  7946,  7949,  7979,  8058,  8065,  8077,  8188,  8234,  8262,  8270,  8339,  8377
  8408,  8434,  8436,  8446,  8447,  8471,  8501,  8551,  8560,  8569,  8613,  8632,  8674,  9245,  9287,  9464
  9474,  9487,  9494,  9506,  9515,  9535,  9562,  9563,  9568,  9576,  9579,  9593,  9600,  9605,  9610,  9611
  9667,  9669,  9683,  9693,  9707, 10227, 10262, 10283, 10346, 10374, 10488, 10595, 10693, 10708, 10781, 10790
 10837, 11604, 11661, 11668, 11669, 11682, 11695, 11901, 12030, 12141, 12297, 12389, 12447, 12462, 12522, 12727
 13176, 13210, 13499, 13561, 13579, 13702, 14080, 14434, 14947, 14983, 15677, 16326, 16607, 16756, 16833, 16948
 17157, 17228, 17534, 18137, 18216, 18300, 18670, 18897, 18922, 19257, 19387, 19462, 19853, 20160
*Elset, elset=_m_Surf-1_S2, internal, instance="P3D End Mill-1"
   498,  1307,  1552,  2501,  2502,  2535,  2630,  2703,  2777,  2946,  2958,  3053,  3282,  3288,  3323,  3368
  3397,  3422,  3488,  3573,  3587,  3597,  3604,  3758,  3862,  3959,  3963,  4010,  4108,  4185,  4377,  4392
  4467,  4490,  4591,  4657,  4674,  4792,  4826,  4863,  4918,  4950,  5018,  5160,  5178,  5204,  5499,  5607
  5628,  5717,  5851,  5863,  5874,  5900,  5902,  5904,  5933,  5944,  5947,  5968,  6004,  6057,  6072,  6091
  6167,  6216,  6310,  6490,  6581,  6615,  6659,  6661,  6681,  6839,  6869,  6878,  6886,  7258,  7441,  7450
  7460,  7509,  7545,  7565,  7589,  7604,  7612,  7692,  7728,  7781,  7806,  7815,  7971,  7994,  8066,  8085
  8144,  8149,  8169,  8237,  8272,  8386,  8472,  8568,  8576,  8627,  8647,  8688,  8709,  8726,  8894,  8980
  9013,  9028,  9105,  9133,  9211,  9250,  9303,  9326,  9343,  9347,  9467,  9510,  9534,  9545,  9546,  9562
  9663,  9708,  9714,  9736,  9758,  9771,  9816,  9863,  9880, 10015, 10036, 10161, 10217, 10356, 10369, 10463
 10493, 10525, 10529, 10578, 10612, 10613, 10616, 10654, 10695, 10703, 10704, 10878, 11036, 11517, 11652, 11673
 11692, 11885, 11900, 12129, 12284, 12414, 12424, 12450, 12459, 12463, 12541, 12553, 12568, 12608, 12682, 12780
 12839, 12914, 18388
*Elset, elset=_m_Surf-1_S3, internal, instance="P3D End Mill-1"
    25,    29,    67,    85,   185,   278,   343,   357,   381,   554,   561,   563,   577,   615,   666,   686
   799,   854,   862,   864,  1008,  1045,  1048,  1149,  1175,  1198,  1201,  1234,  1247,  1303,  1311,  1327
  1342,  1453,  1458,  1460,  1552,  1786,  1802,  1853,  1906,  1910,  2051,  2164,  2213,  2348,  2482,  2485
  2486,  2489,  2501,  2522,  2533,  2535,  2537,  2538,  2540,  2544,  2545,  2549,  2551,  2554,  2555,  2557
  2562,  2564,  2568,  2572,  2576,  2577,  2578,  2584,  2585,  2588,  2592,  2593,  2594,  2606,  2610,  2615
  2619,  2625,  2629,  2639,  2642,  2646,  2659,  2660,  2663,  2667,  2673,  2676,  2677,  2679,  2686,  2687
  2698,  2703,  2733,  2737,  2746,  2754,  2763,  2764,  2769,  2778,  2780,  2781,  2786,  2790,  2791,  2796
  2804,  2808,  2810,  2812,  2814,  2818,  2822,  2842,  2843,  2846,  2857,  2869,  2872,  2877,  2878,  2880
  2882,  2886,  2889,  2892,  2894,  2903,  2906,  2908,  2917,  2918,  2921,  2927,  2929,  2932,  2940,  2943
  2951,  2955,  2958,  2961,  2971,  2977,  2988,  2989,  2998,  3005,  3011,  3019,  3021,  3022,  3024,  3025
  3034,  3035,  3036,  3044,  3045,  3051,  3054,  3060,  3061,  3062,  3068,  3075,  3079,  3080,  3089,  3091
  3098,  3099,  3107,  3108,  3109,  3116,  3120,  3122,  3125,  3130,  3135,  3140,  3146,  3148,  3156,  3157
  3162,  3163,  3165,  3170,  3172,  3181,  3198,  3201,  3204,  3219,  3221,  3222,  3229,  3231,  3238,  3253
  3255,  3260,  3262,  3270,  3274,  3275,  3300,  3311,  3312,  3320,  3324,  3326,  3335,  3339,  3344,  3348
  3350,  3351,  3352,  3359,  3365,  3366,  3369,  3370,  3371,  3373,  3379,  3380,  3389,  3393,  3394,  3397
  3407,  3415,  3422,  3424,  3426,  3430,  3438,  3460,  3466,  3467,  3469,  3472,  3475,  3476,  3478,  3480
  3488,  3496,  3498,  3500,  3501,  3505,  3507,  3508,  3521,  3525,  3527,  3529,  3534,  3535,  3537,  3539
  3542,  3544,  3551,  3565,  3570,  3571,  3574,  3575,  3579,  3592,  3593,  3604,  3612,  3615,  3627,  3631
  3636,  3639,  3640,  3647,  3648,  3649,  3650,  3652,  3654,  3664,  3665,  3669,  3671,  3676,  3690,  3691
  3692,  3693,  3710,  3713,  3717,  3719,  3725,  3726,  3734,  3735,  3740,  3741,  3745,  3757,  3760,  3762
** ... 157 like lines cut
*Elset, elset=_m_Surf-1_S4, internal, instance="P3D End Mill-1"
    21,   109,   113,   118,   128,   147,   156,   171,   181,   222,   246,   278,   360,   450,   503,   561
   581,   782,  1660,  2236,  2545,  2571,  2576,  2665,  2759,  2908,  3232,  3255,  3287,  3288,  3654,  3688
  3826,  3840,  3841,  4145,  4174,  4192,  4196,  4208,  4236,  4292,  4301,  4318,  4388,  4396,  4493,  4563
  4584,  4641,  4826,  4918,  4930,  4933,  4944,  5038,  5200,  5363,  5577,  5657,  5678,  5845,  5855,  5904
  5914,  5918,  5922,  5929,  5941,  6017,  6107,  6108,  6119,  6176,  6217,  6235,  6289,  6298,  6491,  6519
  6539,  6625,  7025,  7028,  7037,  7050,  7231,  7364,  7390,  7504,  7553,  7570,  7671,  7706,  7776,  7797
  7817,  7852,  7924,  7966,  7976,  7984,  7990,  8000,  8024,  8034,  8067,  8100,  8120,  8144,  8175,  8347
  8348,  8377,  8391,  8404,  8462,  8477,  8493,  8520,  8530,  8556,  8618,  8626,  8627,  8727,  8787,  8856
  8869,  9133,  9144,  9288,  9303,  9326,  9343,  9358,  9378,  9388,  9415,  9464,  9466,  9468,  9472,  9487
  9501,  9512,  9545,  9622,  9643,  9681,  9750,  9757,  9809,  9840,  9876,  9956, 10020, 10053, 10313, 10325
 10440, 10484, 10497, 11095, 11300, 11403, 11528, 11670, 11688, 11922, 12051, 12287, 12389, 12710, 12898, 13539
 13839, 13871, 13992, 14001, 14448, 14561, 14796, 14825, 14984, 15089, 16105, 16343, 16587, 16833, 17039, 17947
 18120, 18217, 18886, 18929, 19023, 19233, 19521, 19548, 19560, 19644, 19710, 19725, 19899, 19920, 19966, 20007
*Surface, type=ELEMENT, name=m_Surf-1
_m_Surf-1_S1, S1
_m_Surf-1_S2, S2
_m_Surf-1_S4, S4
_m_Surf-1_S3, S3
*Surface, type=NODE, name=Set-1_CNS_, internal
Set-1, 1.
** Constraint: Constraint-1
*Rigid Body, ref node=_PickedSet30, elset=_PickedSet31
** Constraint: Constraint-2
*Rigid Body, ref node=_PickedSet36, pin nset=Set-2
*End Assembly
** 
** ELEMENT CONTROLS
** 
*Section Controls, name=EC-1, DISTORTION CONTROL=YES, ELEMENT DELETION=YES
1., 1., 1.
*Section Controls, name=EC-2, DISTORTION CONTROL=YES, ELEMENT DELETION=YES, hourglass=ENHANCED
1., 1., 1.
** 
** MATERIALS
** 
*Material, name=Carbide
*Conductivity
55.,
*Density
15000.,
*Elastic
 6.4e+11, 0.22
*Expansion
 6e-06,
*Specific Heat
240.,
*Material, name=Ti6Al4V
*Conductivity
 7.2,
*Damage Initiation, criterion=JOHNSON COOK
 -0.09,  0.25,   0.5, 0.014,  3.87, 1560.,   25., 0.011
*Damage Evolution, type=ENERGY
500.,
*Density
4470.,
*Elastic
 1.15e+11, 0.32
*Expansion
 8.85e-06,
*Inelastic Heat Fraction
         0.9,
*Plastic, hardening=JOHNSON COOK
 1.098e+08, 1.092e+08,      0.93,       1.1,     1560.,       25.
*Rate Dependent, type=JOHNSON COOK
 0.014, 0.011
*Specific Heat
560.,
*Material, name=Ti6Al4V-Plastic
*Conductivity
 7.2,
*Density
4470.,
*Depvar, delete=1
      1,
*Elastic
 1.15e+11, 0.32
*Expansion
 8.85e-06,
*Inelastic Heat Fraction
         0.9,
*Plastic, hardening=JOHNSON COOK
 1.098e+08, 1.092e+08,      0.93,       1.1,     1560.,       25.
*Rate Dependent, type=JOHNSON COOK
 0.014, 0.011
*Specific Heat
560.,
** 
** INTERACTION PROPERTIES
** 
*Surface Interaction, name=IntProp-1
*Friction
 0.308,
*Surface Behavior, pressure-overclosure=HARD
*Gap Heat Generation
1., 0.5
** 
** PHYSICAL CONSTANTS
** 
*Physical Constants, absolute zero=-273.15
** 
** BOUNDARY CONDITIONS
** 
** Name: BC-1 Type: Symmetry/Antisymmetry/Encastre
*Boundary
_PickedSet27, ENCASTRE
** 
** PREDEFINED FIELDS
** 
** Name: Predefined Field-1   Type: Temperature
*Initial Conditions, type=TEMPERATURE
_PickedSet28, 25.
** Name: Predefined Field-2   Type: Temperature
*Initial Conditions, type=TEMPERATURE
_PickedSet29, 25.
** 
** INTERACTIONS
** 
** Interaction: Int-1
*Contact, op=NEW
*Contact Inclusions, ALL EXTERIOR
*Contact Property Assignment
 ,  , IntProp-1
** ----------------------------------------------------------------
** 
** STEP: Step-1
** 
*Step, name=Step-1, nlgeom=YES
*Dynamic Temperature-displacement, Explicit
, 0.0015
*Bulk Viscosity
0.06, 1.2
** 
** BOUNDARY CONDITIONS
** 
** Name: BC-2 Type: Velocity/Angular velocity
*Boundary, type=VELOCITY
_PickedSet25, 1, 1, 0.0407437
_PickedSet25, 2, 2
_PickedSet25, 3, 3
_PickedSet25, 4, 4
_PickedSet25, 5, 5
_PickedSet25, 6, 6, -533.333
** 
** INTERACTIONS
** 
** Interaction: Int-2
*Contact Pair, interaction=IntProp-1, mechanical constraint=KINEMATIC, cpset=Int-2
m_Surf-1, Set-1_CNS_
** 
** OUTPUT REQUESTS
** 
*Restart, write, number interval=1, time marks=NO
** 
** FIELD OUTPUT: F-Output-1
** 
*Output, field, number interval=100
*Node Output
A, NT, RF, RFL, U, V
*Element Output, directions=YES
DMICRT, LE, MISES, PE, PEEQ, S, SDEG, SDV, STATUS, TEMP
*Contact Output
CSTRESS, 
** 
** HISTORY OUTPUT: H-Output-1
** 
*Output, history, variable=PRESELECT
*End Step
